# generated using pymatgen
data_Sm2(TiFe7)3
_symmetry_space_group_name_H-M   'P 1'
_cell_length_a   8.59000000
_cell_length_b   8.59000000
_cell_length_c   4.80400000
_cell_angle_alpha   90.00000000
_cell_angle_beta   90.00000000
_cell_angle_gamma   90.00000000
_symmetry_Int_Tables_number   1
_chemical_formula_structural   Sm2(TiFe7)3
_chemical_formula_sum   'Sm2 Ti3 Fe21'
_cell_volume   354.47803240
_cell_formula_units_Z   1
loop_
 _symmetry_equiv_pos_site_id
 _symmetry_equiv_pos_as_xyz
1  'x, y, z'
loop_
 _atom_site_type_symbol
 _atom_site_label
 _atom_site_symmetry_multiplicity
 _atom_site_fract_x
 _atom_site_fract_y
 _atom_site_fract_z
 _atom_site_occupancy
Sm  Sm0  1  0.00000000  0.00000000  0.00000000  1.0
Sm  Sm1  1  0.50000000  0.50000000  0.50000000  1.0
Ti  Ti2  1  0.25000000  0.25000000  0.25000000  1.0
Fe  Fe3  1  0.75000000  0.25000000  0.25000000  1.0
Fe  Fe4  1  0.75000000  0.75000000  0.25000000  1.0
Fe  Fe5  1  0.25000000  0.75000000  0.25000000  1.0
Fe  Fe6  1  0.25000000  0.75000000  0.75000000  1.0
Fe  Fe7  1  0.25000000  0.25000000  0.75000000  1.0
Fe  Fe8  1  0.75000000  0.25000000  0.75000000  1.0
Fe  Fe9  1  0.75000000  0.75000000  0.75000000  1.0
Fe  Fe10  1  0.27800000  0.50000000  0.00000000  1.0
Fe  Fe11  1  0.50000000  0.27800000  0.00000000  1.0
Ti  Ti12  1  0.72200000  0.50000000  0.00000000  1.0
Fe  Fe13  1  0.50000000  0.72200000  0.00000000  1.0
Fe  Fe14  1  0.77800000  0.00000000  0.50000000  1.0
Fe  Fe15  1  0.00000000  0.77800000  0.50000000  1.0
Fe  Fe16  1  0.22200000  0.00000000  0.50000000  1.0
Fe  Fe17  1  0.00000000  0.22200000  0.50000000  1.0
Fe  Fe18  1  0.35200000  0.00000000  0.00000000  1.0
Fe  Fe19  1  0.00000000  0.35200000  0.00000000  1.0
Fe  Fe20  1  0.64800000  0.00000000  0.00000000  1.0
Fe  Fe21  1  0.00000000  0.64800000  0.00000000  1.0
Ti  Ti22  1  0.85200000  0.50000000  0.50000000  1.0
Fe  Fe23  1  0.50000000  0.85200000  0.50000000  1.0
Fe  Fe24  1  0.14800000  0.50000000  0.50000000  1.0
Fe  Fe25  1  0.50000000  0.14800000  0.50000000  1.0
